Version 4
SHEET 1 2244 924
WIRE 160 -32 96 -32
WIRE 256 -32 240 -32
WIRE 416 -32 256 -32
WIRE 768 -32 704 -32
WIRE 96 -16 96 -32
WIRE 704 0 704 -32
WIRE 416 48 416 -32
WIRE 96 80 96 48
WIRE 464 80 448 80
WIRE 704 112 704 80
WIRE 96 176 96 160
WIRE 416 176 416 128
FLAG 96 176 0
FLAG 416 176 0
FLAG 256 -32 Vbt
FLAG 704 112 0
FLAG 768 -32 DesgasteBateria
FLAG 464 80 w
FLAG 96 -32 e
SYMBOL voltage 96 64 R0
WINDOW 3 32 76 Left 2
WINDOW 123 0 0 Left 2
WINDOW 39 0 0 Left 0
WINDOW 0 28 33 Left 2
SYMATTR Value 7.2
SYMATTR InstName V1
SYMBOL carga_motor 384 48 R0
SYMATTR InstName X1
SYMBOL res 256 -48 R90
WINDOW 0 0 56 VBottom 2
WINDOW 3 32 56 VTop 2
SYMATTR InstName R2
SYMATTR Value 200m
SYMBOL bv 704 -16 R0
SYMATTR InstName B9
SYMATTR Value V= idt( V(Vbt,e)*I(R2) )
SYMBOL cap 80 -16 R0
SYMATTR InstName C1
SYMATTR Value 51600
TEXT 712 176 Left 2 !.tran 60 startup
