Version 4
SHEET 1 2448 1028
WIRE 1328 0 1328 -32
WIRE 1120 80 1008 80
WIRE 1584 80 1408 80
WIRE 1808 128 1760 128
WIRE 1584 144 1520 144
WIRE 1984 176 1984 112
WIRE 1200 192 1200 160
WIRE 1328 192 1328 160
WIRE 1984 288 1984 256
WIRE 1984 288 1888 288
WIRE 1984 320 1984 288
WIRE 1328 352 1328 320
WIRE 1888 352 1888 288
WIRE 1120 432 1008 432
WIRE 1584 432 1408 432
WIRE 1984 464 1984 400
WIRE 1808 480 1760 480
WIRE 1520 496 1520 144
WIRE 1520 496 1456 496
WIRE 1584 496 1520 496
WIRE 1200 544 1200 512
WIRE 1328 544 1328 512
WIRE 1456 560 1456 496
WIRE 1456 656 1456 640
WIRE 1328 704 1328 672
WIRE 1120 784 1008 784
WIRE 1584 784 1408 784
WIRE 1808 832 1760 832
WIRE 1520 848 1520 496
WIRE 1584 848 1520 848
WIRE 1200 896 1200 864
WIRE 1328 896 1328 864
FLAG 1008 80 Vo
IOPIN 1008 80 In
FLAG 1808 480 Id1
IOPIN 1808 480 Out
FLAG 1808 128 Vd
IOPIN 1808 128 Out
FLAG 1328 320 Vcc
FLAG 1200 544 0
FLAG 1328 -32 Vcc
FLAG 1328 192 0
FLAG 1200 192 0
FLAG 1008 432 I1
IOPIN 1008 432 In
FLAG 1888 352 0
FLAG 1984 112 Vcc
FLAG 1456 656 0
FLAG 1808 832 Id2
IOPIN 1808 832 Out
FLAG 1328 672 Vcc
FLAG 1200 896 0
FLAG 1008 784 I2
IOPIN 1008 784 In
FLAG 1984 464 -Vcc
FLAG 1328 896 -Vcc
FLAG 1328 544 -Vcc
SYMBOL SpecialFunctions\\sample 1664 464 R0
WINDOW 3 -64 -52 Left 2
SYMATTR Value Vhigh =18
SYMATTR InstName A3
SYMBOL SpecialFunctions\\sample 1664 112 R0
WINDOW 3 -64 -52 Left 2
SYMATTR Value Vhigh =18
SYMATTR InstName A4
SYMBOL LowPassSallenKey 1152 32 R0
SYMATTR InstName X1
SYMBOL LowPassSallenKey 1152 384 R0
SYMATTR InstName X2
SYMBOL voltage 1984 160 R0
WINDOW 3 34 87 Left 2
WINDOW 123 0 0 Left 2
WINDOW 0 9 13 Left 2
SYMATTR Value 16
SYMATTR InstName V5
SYMATTR SpiceLine Rser=0
SYMBOL voltage 1456 544 R0
WINDOW 3 38 92 Left 2
WINDOW 123 0 0 Left 2
SYMATTR Value PULSE(0 1 0 8n 8n {Ts} {Ts/2} 0)
SYMATTR SpiceLine Rser=0
SYMATTR InstName V3
SYMBOL SpecialFunctions\\sample 1664 816 R0
WINDOW 3 -64 -52 Left 2
SYMATTR Value Vhigh =18
SYMATTR InstName A1
SYMBOL LowPassSallenKey 1152 736 R0
SYMATTR InstName X3
SYMBOL voltage 1984 304 R0
WINDOW 3 34 87 Left 2
WINDOW 123 0 0 Left 2
WINDOW 0 9 13 Left 2
SYMATTR Value 16
SYMATTR InstName V1
SYMATTR SpiceLine Rser=0
TEXT 912 248 Left 2 !.param Ts=52u
