Version 4
SHEET 1 2448 1028
WIRE 1584 80 752 80
WIRE 752 112 752 80
WIRE 704 128 560 128
WIRE 1808 128 1760 128
WIRE 1584 144 1520 144
WIRE 704 208 704 176
WIRE 752 208 752 192
WIRE 752 208 704 208
WIRE 752 240 752 208
WIRE 1584 432 752 432
WIRE 752 464 752 432
WIRE 704 480 560 480
WIRE 1808 480 1760 480
WIRE 1520 496 1520 144
WIRE 1520 496 1456 496
WIRE 1584 496 1520 496
WIRE 704 560 704 528
WIRE 752 560 752 544
WIRE 752 560 704 560
WIRE 1456 560 1456 496
WIRE 752 592 752 560
WIRE 1456 656 1456 640
WIRE 1584 784 752 784
WIRE 752 816 752 784
WIRE 704 832 560 832
WIRE 1808 832 1760 832
WIRE 1520 848 1520 496
WIRE 1584 848 1520 848
WIRE 704 912 704 880
WIRE 752 912 752 896
WIRE 752 912 704 912
WIRE 752 944 752 912
FLAG 560 128 Vo
IOPIN 560 128 In
FLAG 1808 480 Id1
IOPIN 1808 480 Out
FLAG 1808 128 Vd
IOPIN 1808 128 Out
FLAG 752 592 0
FLAG 752 240 0
FLAG 560 480 I1
IOPIN 560 480 In
FLAG 1456 656 0
FLAG 1808 832 Id2
IOPIN 1808 832 Out
FLAG 752 944 0
FLAG 560 832 I2
IOPIN 560 832 In
SYMBOL SpecialFunctions\\sample 1664 464 R0
WINDOW 3 -64 -52 Left 2
SYMATTR Value Vhigh =18
SYMATTR InstName A3
SYMBOL SpecialFunctions\\sample 1664 112 R0
WINDOW 3 -64 -52 Left 2
SYMATTR Value Vhigh =18
SYMATTR InstName A4
SYMBOL voltage 1456 544 R0
WINDOW 3 38 92 Left 2
WINDOW 123 0 0 Left 2
SYMATTR Value PULSE(0 1 0 8n 8n {Ts/2} {Ts} 0)
SYMATTR SpiceLine Rser=0
SYMATTR InstName V3
SYMBOL SpecialFunctions\\sample 1664 816 R0
WINDOW 3 -64 -52 Left 2
SYMATTR Value Vhigh =18
SYMATTR InstName A1
SYMBOL e 752 96 R0
SYMATTR InstName E1
SYMATTR Value Laplace= 1.8195e+15/((s+1.118e05)*(s^2 + 1.119e05*s + 1.627e10))
SYMBOL e 752 448 R0
SYMATTR InstName E2
SYMATTR Value Laplace= 1.8195e+15/((s+1.118e05)*(s^2 + 1.119e05*s + 1.627e10))
SYMBOL e 752 800 R0
SYMATTR InstName E3
SYMATTR Value Laplace= 1.8195e+15/((s+1.118e05)*(s^2 + 1.119e05*s + 1.627e10))
TEXT 1600 280 Left 2 !.param Ts=52u
