Version 4
SHEET 1 4112 860
WIRE 48 -128 -224 -128
WIRE 848 -128 576 -128
WIRE -144 112 -144 -32
WIRE 656 112 656 -32
WIRE -224 128 -224 -128
WIRE -176 128 -176 112
WIRE -176 128 -224 128
WIRE -160 128 -176 128
WIRE 576 128 576 -128
WIRE 624 128 624 112
WIRE 624 128 576 128
WIRE 640 128 624 128
WIRE 48 144 48 -128
WIRE 48 144 -112 144
WIRE 848 144 848 -128
WIRE 848 144 688 144
WIRE -624 160 -640 160
WIRE -592 160 -624 160
WIRE -480 160 -512 160
WIRE -448 160 -480 160
WIRE -320 160 -368 160
WIRE -176 160 -320 160
WIRE -160 160 -176 160
WIRE 48 160 48 144
WIRE 208 160 48 160
WIRE 320 160 288 160
WIRE 352 160 320 160
WIRE 480 160 432 160
WIRE 624 160 480 160
WIRE 640 160 624 160
WIRE 848 160 848 144
WIRE 992 160 848 160
WIRE 1136 160 1072 160
WIRE 1264 160 1136 160
WIRE -176 176 -176 160
WIRE 624 176 624 160
WIRE -320 192 -320 160
WIRE 480 192 480 160
WIRE 1136 192 1136 160
WIRE -320 272 -320 256
WIRE 480 272 480 256
WIRE 1136 272 1136 256
WIRE -144 336 -144 176
WIRE 656 336 656 176
WIRE -480 400 -480 160
WIRE -288 400 -480 400
WIRE 48 400 48 160
WIRE 48 400 -224 400
WIRE 320 400 320 160
WIRE 512 400 320 400
WIRE 848 400 848 160
WIRE 848 400 576 400
FLAG 1136 272 REF
FLAG 656 -32 V+
FLAG 656 336 V-
FLAG 1264 160 OUT
FLAG 480 272 REF
FLAG -144 -32 V+
FLAG -144 336 V-
FLAG -624 160 IN
FLAG -320 272 REF
SYMBOL res 1088 144 R90
WINDOW 0 0 56 VBottom 2
WINDOW 3 32 56 VTop 2
SYMATTR InstName R1
SYMATTR Value 6.2E3
SYMBOL cap 1120 192 R0
SYMATTR InstName C1
SYMATTR Value 1E-9
SYMBOL res 448 144 R90
WINDOW 0 0 56 VBottom 2
WINDOW 3 32 56 VTop 2
SYMATTR InstName R2
SYMATTR Value 100E3
SYMBOL res 304 144 R90
WINDOW 0 0 56 VBottom 2
WINDOW 3 32 56 VTop 2
SYMATTR InstName R3
SYMATTR Value 3.9E3
SYMBOL cap 464 192 R0
SYMATTR InstName C2
SYMATTR Value 100E-12
SYMBOL cap 576 384 R90
WINDOW 0 0 32 VBottom 2
WINDOW 3 32 32 VTop 2
SYMATTR InstName C3
SYMATTR Value 1E-9
SYMBOL Opamps\\LT1492 656 80 R0
SYMATTR InstName U1
SYMBOL res -352 144 R90
WINDOW 0 0 56 VBottom 2
WINDOW 3 32 56 VTop 2
SYMATTR InstName R4
SYMATTR Value 30E3
SYMBOL res -496 144 R90
WINDOW 0 0 56 VBottom 2
WINDOW 3 32 56 VTop 2
SYMATTR InstName R5
SYMATTR Value 13E3
SYMBOL cap -336 192 R0
SYMATTR InstName C4
SYMATTR Value 100E-12
SYMBOL cap -224 384 R90
WINDOW 0 0 32 VBottom 2
WINDOW 3 32 32 VTop 2
SYMATTR InstName C5
SYMATTR Value 1E-9
SYMBOL Opamps\\LT1492 -144 80 R0
SYMATTR InstName U2
