Version 4
SHEET 1 2244 924
WIRE 256 -32 32 -32
WIRE 368 -32 256 -32
WIRE 32 16 32 -32
WIRE 256 16 256 -32
WIRE 368 16 368 -32
WIRE -736 32 -784 32
WIRE -448 32 -496 32
WIRE -448 64 -496 64
WIRE -448 96 -496 96
WIRE 96 96 80 96
WIRE 256 144 256 80
WIRE 368 144 368 96
WIRE -128 160 -272 160
WIRE 32 160 32 112
WIRE 32 160 -48 160
WIRE 96 160 32 160
WIRE -784 208 -784 32
WIRE -272 208 -272 160
WIRE 32 208 32 160
WIRE 112 288 80 288
WIRE -784 336 -784 288
WIRE -272 352 -272 272
WIRE 32 352 32 304
FLAG -448 32 HSC
IOPIN -448 32 BiDir
FLAG -448 96 LSC
IOPIN -448 96 BiDir
FLAG -448 64 MSC
IOPIN -448 64 BiDir
FLAG -272 352 0
FLAG 112 288 LSC
IOPIN 112 288 BiDir
FLAG 32 352 0
FLAG 96 160 MSC
IOPIN 96 160 BiDir
FLAG 96 96 HSC
IOPIN 96 96 BiDir
FLAG -272 160 Vs
FLAG -784 336 0
FLAG 256 144 0
FLAG 368 144 0
FLAG 368 -32 Vc
SYMBOL ind -144 176 R270
WINDOW 0 32 56 VTop 2
WINDOW 3 5 56 VBottom 2
SYMATTR InstName L2
SYMATTR Value 120µ
SYMATTR SpiceLine Ipk=29 Rser=20m
SYMBOL cap -288 208 R0
SYMATTR InstName C2
SYMATTR Value 66
SYMATTR SpiceLine Irms=80 Rser=20m Rpar=8k
SYMBOL modulador_PWM_driver -624 64 R0
SYMATTR InstName X7
SYMBOL voltage -784 192 R0
WINDOW 123 0 0 Left 0
WINDOW 39 24 124 Left 2
WINDOW 3 51 60 Left 2
SYMATTR Value 0.857
SYMATTR InstName V1
SYMBOL cap 240 16 R0
SYMATTR InstName C1
SYMATTR Value 680µ
SYMATTR SpiceLine V=100 Rser=0
SYMBOL res 352 0 R0
SYMATTR InstName R1
SYMATTR Value 1k
SYMBOL nmos 80 16 M0
SYMATTR InstName M1
SYMATTR Value IRFZ44N
SYMBOL nmos 80 208 M0
SYMATTR InstName M2
SYMATTR Value IRFZ44N
TEXT -272 -16 Left 2 !.ic V(Vs)=6\n.ic I(L2)=0\n.ic V(Vc)=0
TEXT 288 344 Left 2 !.tran 25m
