Version 4
SHEET 1 2244 924
WIRE 0 -208 -208 -208
WIRE -688 -176 -736 -176
WIRE -400 -176 -448 -176
WIRE 0 -176 0 -208
WIRE -400 -144 -448 -144
WIRE -400 -112 -448 -112
WIRE -48 -96 -80 -96
WIRE 0 -32 0 -80
WIRE 0 -32 -80 -32
WIRE 80 -32 0 -32
WIRE 288 -32 160 -32
WIRE 400 -32 288 -32
WIRE -736 0 -736 -176
WIRE -208 0 -208 -208
WIRE 0 16 0 -32
WIRE 288 16 288 -32
WIRE 400 16 400 -32
WIRE -48 96 -80 96
WIRE -736 128 -736 80
WIRE -208 144 -208 80
WIRE 0 144 0 112
WIRE 288 144 288 80
WIRE 400 144 400 96
FLAG -208 144 0
FLAG -80 -96 HBT
IOPIN -80 -96 BiDir
FLAG 0 144 0
FLAG -80 -32 MBT
IOPIN -80 -32 BiDir
FLAG -400 -176 HBT
IOPIN -400 -176 BiDir
FLAG -400 -112 LBT
IOPIN -400 -112 BiDir
FLAG -80 96 LBT
IOPIN -80 96 BiDir
FLAG -400 -144 MBT
IOPIN -400 -144 BiDir
FLAG 288 144 0
FLAG 400 144 0
FLAG 400 -32 Vc
FLAG -736 128 0
SYMBOL voltage -208 -16 R0
WINDOW 3 32 76 Left 2
WINDOW 123 0 0 Left 2
WINDOW 39 0 0 Left 0
SYMATTR Value 7.2
SYMATTR InstName V1
SYMBOL ind 64 -16 R270
WINDOW 0 32 56 VTop 2
WINDOW 3 5 56 VBottom 2
SYMATTR InstName L1
SYMATTR Value 200µ
SYMATTR SpiceLine Ipk=6 Rser=20m
SYMBOL cap 272 16 R0
SYMATTR InstName C1
SYMATTR Value 680µ
SYMATTR SpiceLine V=100 Rser=0 Lser=500p Rpar=12Meg
SYMBOL modulador_PWM_driver -576 -144 R0
SYMATTR InstName X6
SYMBOL res 384 0 R0
SYMATTR InstName R1
SYMATTR Value 1
SYMBOL voltage -736 -16 R0
WINDOW 123 0 0 Left 0
WINDOW 39 24 124 Left 2
WINDOW 3 51 60 Left 2
SYMATTR Value 0.694
SYMATTR InstName V3
SYMBOL nmos -48 -176 R0
SYMATTR InstName M1
SYMATTR Value IRFZ44N
SYMBOL nmos -48 16 R0
SYMATTR InstName M2
SYMATTR Value IRFZ44N
TEXT 304 -200 Left 2 !.tran 50m
TEXT 304 -136 Left 2 !.ic I(L1)=0\n.ic V(Vbus)=0
